<?xml version="1.0" encoding="UTF-8"?>

<!-- generated on 2022-01-19 17:10:48 by Eclipse SUMO polyconvert Version 1.10.0
<configuration xmlns:xsi="http://www.w3.org/2001/XMLSchema-instance" xsi:noNamespaceSchemaLocation="http://sumo.dlr.de/xsd/polyconvertConfiguration.xsd">

    <input>
        <net-file value="osm.net.xml"/>
        <osm-files value="osm_bbox.osm.xml"/>
        <osm.keep-full-type value="true"/>
        <type-file value="/usr/share/sumo/data/typemap/osmPolyconvert.typ.xml"/>
    </input>

    <output>
        <output-file value="osm.poly.xml"/>
    </output>

    <processing>
        <poi-layer-offset value="5"/>
    </processing>

    <report>
        <verbose value="true"/>
    </report>

</configuration>
-->

<additional xmlns:xsi="http://www.w3.org/2001/XMLSchema-instance" xsi:noNamespaceSchemaLocation="http://sumo.dlr.de/xsd/additional_file.xsd">
    <location netOffset="-312201.91,-4666326.23" convBoundary="-4234.63,-3017.87,6691.50,3844.78" origBoundary="24.676958,42.099464,24.808000,42.162310" projParameter="+proj=utm +zone=35 +ellps=WGS84 +datum=WGS84 +units=m +no_defs"/>

    <poly id="1003907695" type="building.yes" color="255,230,230" fill="1" layer="-1.00" shape="4850.284509,1359.204092 4857.277455,1367.367427 4848.822230,1374.564734 4841.828992,1366.390302 4850.284509,1359.204092"/>
    <poly id="1003907696" type="building.apartments" color="255,230,230" fill="1" layer="-1.00" shape="4890.332037,1377.266079 4882.719786,1369.774350 4875.023292,1377.529744 4882.219945,1384.621118 4879.745904,1387.118689 4887.265796,1394.557252 4889.901376,1391.911046 4898.440307,1400.378783 4872.259494,1426.569654 4879.729195,1433.987286 4913.019621,1400.689652 4912.204667,1399.877423 4912.526884,1399.546836 4896.606944,1383.892465 4890.332037,1377.266079"/>
    <poly id="1003907697" type="landuse.grass" color="194,194,130" fill="1" layer="-3.00" shape="4645.203568,1664.025443 4676.140079,1677.422602 4713.729235,1692.891707 4795.232726,1719.355106 4780.744750,1747.076414 4724.281134,1710.418392 4668.544354,1678.208736 4643.841586,1666.349780 4645.203568,1664.025443"/>
    <poly id="1003907700" type="landuse.grass" color="194,194,130" fill="1" layer="-3.00" shape="4823.329751,1711.936984 4843.627258,1679.276025 4859.156487,1656.294685 4885.645935,1615.895240 4895.830485,1603.964074 4905.486380,1594.924503 4918.986224,1581.685143 4932.165187,1573.609850 4950.281744,1556.628520 4973.500559,1536.770452 5006.533535,1505.668880 5011.694924,1511.457522 4938.021834,1579.102627 4898.663590,1616.591011 4884.982709,1637.513138 4868.181085,1677.439077 4846.641029,1723.410403 4823.329751,1711.936984"/>
    <poly id="101767397" type="amenity.food_court" color="237,199,199" fill="1" layer="-1.00" shape="1127.482061,1401.199790 1127.609154,1389.440133 1127.665450,1385.005032 1150.423240,1385.258388 1150.247769,1401.441821 1127.482061,1401.199790"/>
    <poly id="101780445" type="amenity.parking" color="184,184,179" fill="1" layer="-1.00" shape="1343.108825,1488.513235 1362.063422,1467.544272 1384.434603,1486.976416 1365.773061,1508.082026 1343.108825,1488.513235"/>
    <poly id="101783326" type="building.yes" color="255,230,230" fill="1" layer="-1.00" shape="1361.775009,1467.896361 1415.339444,1408.421647 1419.066103,1411.745601 1421.580939,1408.956763 1435.276996,1421.195634 1399.942531,1460.442758 1404.016515,1464.079766 1390.976966,1478.558561 1386.129820,1476.019838 1383.695318,1478.717674 1382.814710,1477.940900 1378.436034,1482.801362 1361.775009,1467.896361"/>
    <poly id="101783327" type="amenity.social_facility" color="237,199,199" fill="1" layer="-1.00" shape="2788.199190,2315.613938 2778.726219,2276.971632 2767.593076,2279.686105 2771.278970,2294.734600 2763.259835,2296.689558 2765.491069,2305.775918 2773.666321,2303.783530 2777.222233,2318.290966 2788.199190,2315.613938"/>
    <poly id="101783327#1" type="building.yes" color="255,230,230" fill="1" layer="-1.00" shape="2788.199190,2315.613938 2778.726219,2276.971632 2767.593076,2279.686105 2771.278970,2294.734600 2763.259835,2296.689558 2765.491069,2305.775918 2773.666321,2303.783530 2777.222233,2318.290966 2788.199190,2315.613938"/>
    <poly id="1019674780" type="landuse.construction" color="194,194,130" fill="1" layer="-3.00" shape="4105.712452,1498.627037 4132.562672,1447.759217 4013.846862,1394.938278 3987.284878,1456.843948 4105.712452,1498.627037"/>
    <poly id="1019674946" type="building.yes" color="255,230,230" fill="1" layer="-1.00" shape="2978.685354,1202.198645 3000.832521,1213.552286 3000.470540,1203.839090 2993.994826,1193.730486 2981.411088,1187.548763 2977.080032,1187.328893 2971.302322,1191.236013 2978.685354,1202.198645"/>
    <poly id="1019674947" type="building.yes" color="255,230,230" fill="1" layer="-1.00" shape="2955.851671,1177.273528 2969.244958,1172.055681 2984.336875,1172.326949 2996.642804,1176.426970 3008.637820,1185.390939 3016.151112,1201.328205 3017.254529,1217.877853 3000.843774,1218.085537 2994.985286,1223.328150 2986.108343,1222.894027 2974.005723,1218.344237 2964.683045,1209.421418 2957.929148,1197.220034 2955.665811,1187.223313 2955.851671,1177.273528"/>
    <poly id="1019675392" type="building.construction" color="255,230,230" fill="1" layer="-1.00" shape="2754.284329,1780.354591 2776.220866,1784.990426 2782.140781,1757.211524 2760.212429,1752.575452 2754.284329,1780.354591"/>
    <poly id="1019675393" type="building.construction" color="255,230,230" fill="1" layer="-1.00" shape="2792.075067,1683.858405 2842.420216,1681.960133 2841.705948,1662.922374 2784.090728,1665.100247 2784.366784,1672.471149 2775.162654,1671.523657 2771.083407,1710.521495 2789.093732,1712.382465 2792.075067,1683.858405"/>
    <poly id="1019675394" type="building.construction" color="255,230,230" fill="1" layer="-1.00" shape="2832.620403,1705.596064 2855.879862,1704.541628 2854.962384,1684.375809 2831.702859,1685.430246 2832.620403,1705.596064"/>
    <poly id="103428013" type="leisure.park" color="207,245,201" fill="1" layer="-2.00" shape="2257.740996,2047.825319 2261.386043,1980.814662 2310.634552,2002.375920 2288.375125,2055.242053 2257.740996,2047.825319"/>
    <poly id="103428015" type="amenity.police" color="237,199,199" fill="1" layer="-1.00" shape="2298.562569,1853.718746 2336.485288,1863.744172 2343.770519,1829.461878 2306.313823,1819.868614 2298.562569,1853.718746"/>
    <poly id="103428015#1" type="building.yes" color="255,230,230" fill="1" layer="-1.00" shape="2298.562569,1853.718746 2336.485288,1863.744172 2343.770519,1829.461878 2306.313823,1819.868614 2298.562569,1853.718746"/>
    <poly id="103428019" type="amenity.place_of_worship" color="237,199,199" fill="1" layer="-1.00" shape="2260.575354,1947.800861 2272.255053,1893.235089 2327.956579,1906.081836 2310.564425,1953.808476 2284.744159,1957.765611 2260.575354,1947.800861"/>
    <poly id="103428043" type="amenity.social_facility" color="237,199,199" fill="1" layer="-1.00" shape="2236.970789,1854.627925 2230.992257,1849.296046 2230.239131,1850.215912 2220.653206,1842.612168 2224.207189,1838.140633 2227.149422,1839.018820 2264.444569,1825.181314 2270.346645,1827.292835 2267.642553,1841.753639 2261.969740,1842.069554 2237.978788,1846.423180 2241.562751,1849.062363 2236.970789,1854.627925"/>
    <poly id="103428043#1" type="building.yes" color="255,230,230" fill="1" layer="-1.00" shape="2236.970789,1854.627925 2230.992257,1849.296046 2230.239131,1850.215912 2220.653206,1842.612168 2224.207189,1838.140633 2227.149422,1839.018820 2264.444569,1825.181314 2270.346645,1827.292835 2267.642553,1841.753639 2261.969740,1842.069554 2237.978788,1846.423180 2241.562751,1849.062363 2236.970789,1854.627925"/>
    <poly id="103432936" type="building.yes" color="255,230,230" fill="1" layer="-1.00" shape="2446.297742,1996.619912 2450.417196,1986.288878 2405.376490,1968.438470 2401.257088,1978.769532 2446.297742,1996.619912"/>
    <poly id="103432937" type="amenity.school" color="237,199,199" fill="1" layer="-1.00" shape="2211.159342,2036.472595 2171.044835,2044.939926 2165.505414,2060.997733 2226.718766,2112.078413 2240.482731,2069.180558 2244.118196,2036.383111 2211.159342,2036.472595"/>
    <poly id="103432938" type="building.residential" color="255,230,230" fill="1" layer="-1.00" shape="2551.089072,1773.855012 2553.272667,1760.019168 2555.603564,1745.179405 2558.226337,1728.542996 2559.722113,1719.058778 2548.653275,1717.327184 2540.020608,1772.134538 2551.089072,1773.855012"/>
    <poly id="103432939" type="building.apartments" color="255,230,230" fill="1" layer="-1.00" shape="2688.430214,1790.594320 2697.612129,1735.561674 2685.037404,1733.480484 2675.863846,1788.512933 2688.430214,1790.594320"/>
    <poly id="103432940" type="building.yes" color="255,230,230" fill="1" layer="-1.00" shape="2066.160026,1576.219754 2105.682185,1578.134814 2128.717827,1579.239569 2148.010795,1580.165120 2148.283199,1574.490974 2148.563867,1568.816610 2066.712967,1564.871234 2066.160026,1576.219754"/>
    <poly id="103432941" type="building.yes" color="255,230,230" fill="1" layer="-1.00" shape="2288.908033,1633.805309 2298.840364,1587.286042 2293.185475,1586.090257 2287.447358,1584.874442 2277.515095,1631.393727 2288.908033,1633.805309"/>
    <poly id="103432942" type="building.yes" color="255,230,230" fill="1" layer="-1.00" shape="2599.062717,2064.265641 2616.563956,2068.184043 2620.882662,2049.058544 2603.381379,2045.140130 2599.062717,2064.265641"/>
    <poly id="103432943" type="amenity.school" color="237,199,199" fill="1" layer="-1.00" shape="2175.777647,2194.579192 2195.399222,2196.429510 2199.088390,2157.830282 2180.386868,2156.066847 2179.699182,2163.240900 2181.655477,2163.422752 2180.928148,2170.975648 2172.912043,2170.219936 2172.114874,2178.574716 2179.575571,2179.278376 2178.887598,2186.441326 2176.574817,2186.224412 2175.777647,2194.579192"/>
    <poly id="103432943#1" type="building.yes" color="255,230,230" fill="1" layer="-1.00" shape="2175.777647,2194.579192 2195.399222,2196.429510 2199.088390,2157.830282 2180.386868,2156.066847 2179.699182,2163.240900 2181.655477,2163.422752 2180.928148,2170.975648 2172.912043,2170.219936 2172.114874,2178.574716 2179.575571,2179.278376 2178.887598,2186.441326 2176.574817,2186.224412 2175.777647,2194.579192"/>
    <poly id="103432944" type="building.yes" color="255,230,230" fill="1" layer="-1.00" shape="2377.351332,1742.907683 2385.983097,1688.111196 2374.914153,1686.379872 2366.282763,1741.187478 2377.351332,1742.907683"/>
    <poly id="103432945" type="amenity.school" color="237,199,199" fill="1" layer="-1.00" shape="1931.800578,2292.222090 1933.778438,2280.047035 1967.657393,2286.043405 1979.213194,2284.627702 1996.273015,2278.700071 1995.475780,2276.687629 2005.117806,2273.877870 2010.579519,2286.590254 1984.296794,2295.227688 1968.025496,2297.501029 1931.800578,2292.222090"/>
    <poly id="103432945#1" type="building.school" color="255,230,230" fill="1" layer="-1.00" shape="1931.800578,2292.222090 1933.778438,2280.047035 1967.657393,2286.043405 1979.213194,2284.627702 1996.273015,2278.700071 1995.475780,2276.687629 2005.117806,2273.877870 2010.579519,2286.590254 1984.296794,2295.227688 1968.025496,2297.501029 1931.800578,2292.222090"/>
    <poly id="103432947" type="building.yes" color="255,230,230" fill="1" layer="-1.00" shape="2510.614496,1766.795619 2519.255504,1711.999109 2508.186642,1710.267578 2499.545716,1765.064104 2510.614496,1766.795619"/>
    <poly id="103432948" type="historic.archaeological_site" color="128,255,128" fill="1" layer="-1.00" shape="1904.974673,1872.449498 1883.920341,1870.871048 1883.856949,1851.527166 1871.543440,1851.518432 1872.815848,1818.227424 1856.255316,1816.786147 1857.115799,1807.707384 1873.634223,1808.805311 1874.086180,1801.481866 1924.880223,1810.988032 1945.862363,1825.824824 1918.156300,1863.668240 1913.081074,1860.301811 1904.974673,1872.449498"/>
    <poly id="103432949" type="building.yes" color="255,230,230" fill="1" layer="-1.00" shape="2526.927512,2035.503290 2572.371976,2054.588336 2576.505859,2044.801476 2531.069611,2025.716185 2526.927512,2035.503290"/>
    <poly id="103432951" type="building.yes" color="255,230,230" fill="1" layer="-1.00" shape="2654.901298,2076.744571 2672.402468,2080.663109 2676.721312,2061.537649 2659.220099,2057.619098 2654.901298,2076.744571"/>
    <poly id="103432952" type="building.yes" color="255,230,230" fill="1" layer="-1.00" shape="2278.307472,1909.865667 2311.088461,1916.826033 2313.394032,1906.075928 2280.612704,1899.104446 2278.307472,1909.865667"/>
    <poly id="103432953" type="building.yes" color="255,230,230" fill="1" layer="-1.00" shape="2228.662280,1622.456162 2240.308015,1624.416548 2248.282805,1577.370885 2236.636997,1575.410484 2228.662280,1622.456162"/>
    <poly id="103432954" type="building.yes" color="255,230,230" fill="1" layer="-1.00" shape="2423.941745,1748.872191 2432.573856,1694.075772 2421.504937,1692.344376 2412.872908,1747.140810 2423.941745,1748.872191"/>
    <poly id="103432955" type="building.apartments" color="255,230,230" fill="1" layer="-1.00" shape="2624.182351,1780.747031 2632.815941,1725.950903 2621.747139,1724.219195 2613.113631,1779.015339 2624.182351,1780.747031"/>
    <poly id="103432956" type="building.yes" color="255,230,230" fill="1" layer="-1.00" shape="2186.337326,1615.525026 2195.022486,1568.460590 2184.103589,1566.470033 2175.418206,1613.523381 2186.337326,1615.525026"/>
    <poly id="103432958" type="building.yes" color="255,230,230" fill="1" layer="-1.00" shape="2462.607852,2007.436284 2510.025352,2028.269189 2514.521693,2018.117192 2467.104142,1997.284255 2462.607852,2007.436284"/>
    <poly id="103432959" type="amenity.place_of_worship" color="237,199,199" fill="1" layer="-1.00" shape="2071.423753,1961.991481 2095.205712,1967.932226 2104.377210,1931.533152 2080.586878,1925.592591 2071.423753,1961.991481"/>
    <poly id="103432959#1" type="building.cathedral" color="255,230,230" fill="1" layer="-1.00" shape="2071.423753,1961.991481 2095.205712,1967.932226 2104.377210,1931.533152 2080.586878,1925.592591 2071.423753,1961.991481"/>
    <poly id="103432959#2" type="historic.yes" color="128,255,128" fill="1" layer="-1.00" shape="2071.423753,1961.991481 2095.205712,1967.932226 2104.377210,1931.533152 2080.586878,1925.592591 2071.423753,1961.991481"/>
    <poly id="103432959#3" type="tourism.attraction" color="207,245,201" fill="1" layer="-2.00" shape="2071.423753,1961.991481 2095.205712,1967.932226 2104.377210,1931.533152 2080.586878,1925.592591 2071.423753,1961.991481"/>
    <poly id="103432960" type="historic.archaeological_site" color="128,255,128" fill="1" layer="-1.00" shape="2118.531561,2077.779729 2133.561854,2058.816290 2101.272146,2028.731435 2057.406661,2013.774648 2017.019670,2016.294142 2015.250259,2063.698989 2011.096040,2083.042856 2045.863354,2111.117492 2089.891644,2098.679465 2118.531561,2077.779729"/>
    <poly id="103432961" type="building.yes" color="255,230,230" fill="1" layer="-1.00" shape="2298.840364,1587.286042 2304.146118,1588.413232 2329.451623,1469.852598 2322.939889,1468.468193 2322.557163,1470.267241 2318.107793,1469.317522 2293.185475,1586.090257 2298.840364,1587.286042"/>
    <poly id="103432962" type="building.yes" color="255,230,230" fill="1" layer="-1.00" shape="2714.679948,2089.698325 2732.181044,2093.617009 2736.500037,2074.491590 2718.998897,2070.572893 2714.679948,2089.698325"/>
    <poly id="103432963" type="building.yes" color="255,230,230" fill="1" layer="-1.00" shape="2355.385266,1915.483293 2356.214964,1913.072459 2346.201625,1909.646686 2330.142194,1956.171495 2378.123052,1972.610728 2381.204358,1963.684796 2343.237037,1950.682398 2352.012138,1925.261400 2364.345465,1927.603901 2366.374526,1917.027764 2355.385266,1915.483293"/>
    <poly id="103432964" type="amenity.marketplace" color="237,199,199" fill="1" layer="-1.00" shape="2129.375616,2085.750222 2143.198376,2069.918770 2169.462399,2090.061852 2167.348129,2093.617701 2129.375616,2085.750222"/>
    <poly id="103432967" type="amenity.place_of_worship" color="237,199,199" fill="1" layer="-1.00" shape="2277.062895,1953.400764 2276.957150,1949.381106 2270.104938,1949.183572 2270.292050,1943.722798 2267.394521,1943.599016 2267.554292,1939.927947 2270.451822,1940.051729 2270.477959,1935.072994 2277.168794,1935.108098 2277.241390,1929.694784 2284.713393,1929.876022 2284.515838,1934.625920 2299.676232,1934.727156 2299.438190,1938.566958 2301.074425,1939.468414 2301.499204,1940.212837 2301.500614,1941.523982 2301.185378,1942.743451 2300.530542,1943.627389 2299.077141,1944.332321 2298.718138,1950.175413 2283.907563,1949.853856 2283.729712,1953.780969 2277.062895,1953.400764"/>
    <poly id="103432967#1" type="building.yes" color="255,230,230" fill="1" layer="-1.00" shape="2277.062895,1953.400764 2276.957150,1949.381106 2270.104938,1949.183572 2270.292050,1943.722798 2267.394521,1943.599016 2267.554292,1939.927947 2270.451822,1940.051729 2270.477959,1935.072994 2277.168794,1935.108098 2277.241390,1929.694784 2284.713393,1929.876022 2284.515838,1934.625920 2299.676232,1934.727156 2299.438190,1938.566958 2301.074425,1939.468414 2301.499204,1940.212837 2301.500614,1941.523982 2301.185378,1942.743451 2300.530542,1943.627389 2299.077141,1944.332321 2298.718138,1950.175413 2283.907563,1949.853856 2283.729712,1953.780969 2277.062895,1953.400764"/>
    <poly id="106580746" type="leisure.park" color="207,245,201" fill="1" layer="-2.00" shape="2657.055397,1270.758360 2715.530818,1269.090426 2710.799722,1161.275912 2697.799802,1161.939267 2696.761940,1156.110657 2651.528092,1157.220001 2657.055397,1270.758360"/>
    <poly id="106580750" type="amenity.place_of_worship" color="237,199,199" fill="1" layer="-1.00" shape="2579.797666,1140.424386 2640.595738,1139.294937 2639.589687,1091.830095 2578.455339,1095.601823 2579.797666,1140.424386"/>
    <poly id="106580751" type="amenity.fuel" color="237,199,199" fill="1" layer="-1.00" shape="2660.445472,1185.342912 2659.867441,1168.046112 2664.589058,1174.322507 2665.153594,1186.063829 2660.353728,1192.245663 2660.445472,1185.342912"/>
    <poly id="106580751#1" type="shop.no" color="237,199,255" fill="1" layer="-1.00" shape="2660.445472,1185.342912 2659.867441,1168.046112 2664.589058,1174.322507 2665.153594,1186.063829 2660.353728,1192.245663 2660.445472,1185.342912"/>
    <poly id="106580753" type="leisure.playground" color="207,245,201" fill="1" layer="-2.00" shape="2633.481572,1805.793051 2664.361340,1812.782756 2666.834342,1794.528026 2636.088032,1791.679458 2633.481572,1805.793051"/>
    <poly id="110786534" type="building.yes" color="255,230,230" fill="1" layer="-1.00" shape="4756.099170,1676.546974 4766.154443,1676.852698 4765.435292,1656.470682 4755.219316,1657.302500 4755.307501,1660.700324 4753.424874,1661.126976 4747.636926,1671.666433 4756.099170,1676.546974"/>
    <poly id="110786548" type="amenity.parking" color="184,184,179" fill="1" layer="-1.00" shape="4642.475360,1642.717781 4652.552997,1629.233405 4728.024726,1661.264010 4722.174543,1673.227376 4729.308153,1677.575689 4714.430441,1676.261832 4712.061505,1675.156623 4708.296651,1671.565344 4646.376220,1644.538768 4642.475360,1642.717781"/>
    <poly id="110786550" type="building.yes" color="255,230,230" fill="1" layer="-1.00" shape="4657.578607,1629.147349 4669.380326,1601.484418 4734.515293,1629.050016 4722.721932,1656.723723 4657.578607,1629.147349"/>
    <poly id="110786553" type="amenity.car_wash" color="237,199,199" fill="1" layer="-1.00" shape="4754.969458,1647.675329 4754.177541,1638.828920 4766.857523,1638.622069 4767.214320,1647.590886 4754.969458,1647.675329"/>
    <poly id="114020198" type="building.yes" color="255,230,230" fill="1" layer="-1.00" shape="2880.552124,2414.229806 2906.673858,2413.944823 2906.631067,2409.790182 2949.689575,2408.650139 2950.707659,2447.169803 2966.795747,2446.748061 2965.515495,2398.223667 2948.113468,2398.679851 2947.871831,2391.985854 2907.194915,2393.452362 2907.426400,2399.757717 2879.200041,2400.509021 2879.462129,2410.502648 2880.511537,2410.475127 2880.552124,2414.229806"/>
    <poly id="117544228" type="leisure.playground" color="207,245,201" fill="1" layer="-2.00" shape="1109.746332,1876.221462 1110.684491,1857.617666 1130.615661,1858.612404 1129.685714,1877.215977 1109.746332,1876.221462"/>
    <poly id="117544246" type="building.yes" color="255,230,230" fill="1" layer="-1.00" shape="947.114577,2014.381675 955.067713,2013.993164 954.811689,2008.699601 946.850283,2009.088332 947.114577,2014.381675"/>
    <poly id="117544248" type="leisure.playground" color="207,245,201" fill="1" layer="-2.00" shape="1556.998894,1691.919068 1560.619602,1675.266914 1602.237684,1676.701542 1602.115897,1695.894784 1581.247786,1695.756815 1573.158847,1704.482014 1556.998894,1691.919068"/>
    <poly id="117884872" type="leisure.pitch" color="207,245,201" fill="1" layer="-2.00" shape="3710.084801,779.400916 3771.207402,809.640832 3726.439141,904.734806 3662.026965,876.136791 3710.084801,779.400916"/>
    <poly id="117884872#1" type="sport.soccer" color="79,230,125" fill="1" layer="-2.00" shape="3710.084801,779.400916 3771.207402,809.640832 3726.439141,904.734806 3662.026965,876.136791 3710.084801,779.400916"/>
    <poly id="117884874" type="leisure.pitch" color="207,245,201" fill="1" layer="-2.00" shape="3764.603310,666.807414 3823.317065,698.210698 3779.814801,790.848900 3716.920914,760.877353 3764.603310,666.807414"/>
    <poly id="117884874#1" type="sport.soccer" color="79,230,125" fill="1" layer="-2.00" shape="3764.603310,666.807414 3823.317065,698.210698 3779.814801,790.848900 3716.920914,760.877353 3764.603310,666.807414"/>
    <poly id="118820600" type="amenity.place_of_worship" color="237,199,199" fill="1" layer="-1.00" shape="2164.706923,2156.001794 2181.840024,2150.328281 2178.176565,2139.324097 2161.035469,2145.008940 2164.706923,2156.001794"/>
    <poly id="118820600#1" type="building.yes" color="255,230,230" fill="1" layer="-1.00" shape="2164.706923,2156.001794 2181.840024,2150.328281 2178.176565,2139.324097 2161.035469,2145.008940 2164.706923,2156.001794"/>
    <poly id="118820608" type="amenity.place_of_worship" color="237,199,199" fill="1" layer="-1.00" shape="2143.533446,2509.145621 2119.808249,2511.570462 2121.331815,2526.408959 2145.056963,2523.984122 2143.533446,2509.145621"/>
    <poly id="118820608#1" type="building.church" color="255,230,230" fill="1" layer="-1.00" shape="2143.533446,2509.145621 2119.808249,2511.570462 2121.331815,2526.408959 2145.056963,2523.984122 2143.533446,2509.145621"/>
    <poly id="119808862" type="leisure.park" color="207,245,201" fill="1" layer="-2.00" shape="1147.960008,2288.314109 1147.155239,2274.467854 1150.829604,2270.203662 1196.983019,2271.593441 1197.787102,2285.417490 1147.960008,2288.314109"/>
    <poly id="120432567" type="amenity.kindergarten" color="237,199,199" fill="1" layer="-1.00" shape="2948.593928,1218.432323 2950.222538,1156.553385 3014.890982,1156.381334 3025.061297,1183.771767 3030.670544,1234.682776 2948.593928,1218.432323"/>
    <poly id="120432568" type="building.yes" color="255,230,230" fill="1" layer="-1.00" shape="2963.100361,1312.189974 2989.292337,1310.959204 2988.720479,1298.918063 2994.695610,1298.761512 2993.099025,1237.822693 2969.256146,1238.447409 2969.386205,1243.410902 2959.854297,1243.860683 2963.100361,1312.189974"/>
    <poly id="120432568#1" type="sport.yes" color="79,230,125" fill="1" layer="-2.00" shape="2963.100361,1312.189974 2989.292337,1310.959204 2988.720479,1298.918063 2994.695610,1298.761512 2993.099025,1237.822693 2969.256146,1238.447409 2969.386205,1243.410902 2959.854297,1243.860683 2963.100361,1312.189974"/>
    <poly id="120432570" type="building.yes" color="255,230,230" fill="1" layer="-1.00" shape="2910.344587,2274.219410 2950.757537,2283.160392 2953.266520,2271.938517 2912.845248,2262.997735 2910.344587,2274.219410"/>
    <poly id="120432571" type="building.apartments" color="255,230,230" fill="1" layer="-1.00" shape="2778.421925,1457.827604 2791.428470,1457.753109 2790.507543,1414.130679 2777.800069,1414.575122 2777.882164,1443.241044 2778.421925,1457.827604"/>
    <poly id="120432575" type="building.yes" color="255,230,230" fill="1" layer="-1.00" shape="2884.913580,2186.715206 2807.029479,2168.812532 2804.066240,2181.624243 2881.999792,2199.525580 2877.646699,2218.307329 2890.832230,2221.328396 2898.593882,2187.789887 2885.374949,2184.758567 2884.913580,2186.715206"/>
    <poly id="120432577" type="building.yes" color="255,230,230" fill="1" layer="-1.00" shape="2945.914551,1032.238186 2986.765899,1030.501111 2986.244925,1018.191963 2945.393506,1019.929038 2945.914551,1032.238186"/>
    <poly id="120432578" type="building.yes" color="255,230,230" fill="1" layer="-1.00" shape="2850.365121,1036.576094 2875.024101,1035.507381 2874.492339,1023.109618 2849.824759,1024.167445 2850.365121,1036.576094"/>
    <poly id="120432579" type="building.yes" color="255,230,230" fill="1" layer="-1.00" shape="2579.547701,2137.315283 2575.623092,2150.030134 2647.864129,2172.167567 2651.788850,2159.452758 2579.547701,2137.315283"/>
    <poly id="120432580" type="building.office" color="255,230,230" fill="1" layer="-1.00" shape="2579.691749,1737.268598 2598.577173,1740.017257 2600.932781,1723.910135 2582.047316,1721.161468 2579.691749,1737.268598"/>
    <poly id="120432581" type="building.yes" color="255,230,230" fill="1" layer="-1.00" shape="2800.416839,1514.153462 2820.236026,1518.433882 2824.221347,1500.117360 2804.410377,1495.836710 2800.416839,1514.153462"/>
    <poly id="120432582" type="building.yes" color="255,230,230" fill="1" layer="-1.00" shape="2949.944007,1122.570190 2986.679076,1120.940952 2986.092917,1107.722356 2949.357488,1109.340491 2949.944007,1122.570190"/>
    <poly id="120432583" type="building.yes" color="255,230,230" fill="1" layer="-1.00" shape="2844.186915,1540.884679 2875.499617,1547.952899 2878.643747,1534.136464 2847.331280,1527.079333 2844.186915,1540.884679"/>
    <poly id="120432585" type="building.yes" color="255,230,230" fill="1" layer="-1.00" shape="3035.997901,1022.555598 3031.693993,1033.479939 3070.757888,1048.757616 3075.070109,1037.833084 3035.997901,1022.555598"/>
    <poly id="120432586" type="building.apartments" color="255,230,230" fill="1" layer="-1.00" shape="2737.873872,1452.435498 2746.870951,1452.099437 2756.620070,1451.743657 2756.875062,1458.626197 2767.706197,1458.219822 2778.421925,1457.827604 2777.882164,1443.241044 2756.525625,1444.045755 2756.375353,1439.893937 2737.431074,1440.602085 2737.873872,1452.435498"/>
    <poly id="120432588" type="building.yes" color="255,230,230" fill="1" layer="-1.00" shape="2944.285620,1096.317223 2955.949412,1095.789346 2953.728392,1046.378550 2942.064228,1046.895325 2944.285620,1096.317223"/>
    <poly id="120432592" type="building.yes" color="255,230,230" fill="1" layer="-1.00" shape="2513.303828,2113.076393 2451.406013,2086.834879 2445.932044,2099.112733 2507.862165,2126.586744 2513.303828,2113.076393"/>
    <poly id="120432596" type="building.yes" color="255,230,230" fill="1" layer="-1.00" shape="2489.928030,1803.452128 2535.064464,1812.011233 2534.515176,1815.025818 2559.891850,1819.659507 2562.967639,1802.955639 2539.667941,1798.689621 2539.914490,1797.371965 2492.792128,1788.453872 2489.928030,1803.452128"/>
    <poly id="120432597" type="building.yes" color="255,230,230" fill="1" layer="-1.00" shape="2345.391926,2042.686232 2340.272432,2054.288151 2406.016581,2083.061084 2411.136155,2071.459215 2345.391926,2042.686232"/>
    <poly id="120432598" type="building.yes" color="255,230,230" fill="1" layer="-1.00" shape="2475.001194,1853.158049 2489.585826,1855.574953 2496.682444,1813.141836 2482.089466,1810.725131 2475.001194,1853.158049"/>
    <poly id="120432599" type="building.yes" color="255,230,230" fill="1" layer="-1.00" shape="2424.613196,2066.360232 2414.721798,2087.065790 2429.961521,2094.287802 2439.852951,2073.582267 2424.613196,2066.360232"/>
    <poly id="120432600" type="building.yes" color="255,230,230" fill="1" layer="-1.00" shape="2415.138274,1916.056861 2426.643911,1920.888025 2438.882260,1891.931498 2427.376878,1887.111418 2415.138274,1916.056861"/>
    <poly id="120432601" type="building.yes" color="255,230,230" fill="1" layer="-1.00" shape="2911.991964,2233.607540 2951.511948,2242.227491 2954.194238,2230.045472 2914.674191,2221.425504 2911.991964,2233.607540"/>
    <poly id="122268312" type="building.yes" color="255,230,230" fill="1" layer="-1.00" shape="3129.390141,1604.537020 3127.842931,1561.553306 3114.185954,1562.044243 3115.733247,1605.027957 3129.390141,1604.537020"/>
    <poly id="122268314" type="building.yes" color="255,230,230" fill="1" layer="-1.00" shape="3035.096182,1674.176437 3035.425292,1688.001806 3131.004853,1685.787422 3130.818329,1672.347233 3035.096182,1674.176437"/>
    <poly id="122268316" type="building.yes" color="255,230,230" fill="1" layer="-1.00" shape="3071.104361,2004.493382 3103.633117,2002.196855 3102.899026,1991.848923 3070.370222,1994.145451 3071.104361,2004.493382"/>
    <poly id="122268317" type="building.yes" color="255,230,230" fill="1" layer="-1.00" shape="3198.994745,1771.944913 3196.228862,1683.335431 3184.115439,1683.708063 3186.873501,1772.328865 3198.994745,1771.944913"/>
    <poly id="122268320" type="building.apartments" color="255,230,230" fill="1" layer="-1.00" shape="3036.704091,1877.910690 3049.579192,1877.584502 3048.453340,1833.345218 3035.569895,1833.671622 3036.704091,1877.910690"/>
    <poly id="122268321" type="building.yes" color="255,230,230" fill="1" layer="-1.00" shape="3020.558865,1580.452820 3017.722676,1537.536198 3004.084676,1538.437978 3006.929213,1581.354381 3020.558865,1580.452820"/>
    <poly id="122268322" type="amenity.kindergarten" color="237,199,199" fill="1" layer="-1.00" shape="3017.149060,1662.101585 3015.450489,1607.054578 3081.505018,1605.024275 3083.194809,1660.071497 3017.149060,1662.101585"/>